conf_0
     RDKit          3D

 15 15  0  0  0  0  0  0  0  0999 V2000
    2.2116   -0.1678    0.1254 C   0  0  0  0  0  0  0  0  0  0  0  0
    0.7207   -0.0502    0.0110 C   0  0  0  0  0  0  0  0  0  0  0  0
    0.0949    1.1969    0.1707 C   0  0  0  0  0  0  0  0  0  0  0  0
   -1.2983    1.2992    0.1006 C   0  0  0  0  0  0  0  0  0  0  0  0
   -2.0746    0.1572   -0.1160 C   0  0  0  0  0  0  0  0  0  0  0  0
   -1.4592   -1.0897   -0.2580 C   0  0  0  0  0  0  0  0  0  0  0  0
   -0.0664   -1.1961   -0.1886 C   0  0  0  0  0  0  0  0  0  0  0  0
    2.4875   -0.3457    1.1858 H   0  0  0  0  0  0  0  0  0  0  0  0
    2.7061    0.7625   -0.2267 H   0  0  0  0  0  0  0  0  0  0  0  0
    2.5866   -1.0110   -0.4931 H   0  0  0  0  0  0  0  0  0  0  0  0
    0.6842    2.0880    0.3484 H   0  0  0  0  0  0  0  0  0  0  0  0
   -1.7762    2.2631    0.2182 H   0  0  0  0  0  0  0  0  0  0  0  0
   -3.1526    0.2377   -0.1686 H   0  0  0  0  0  0  0  0  0  0  0  0
   -2.0617   -1.9745   -0.4181 H   0  0  0  0  0  0  0  0  0  0  0  0
    0.3974   -2.1695   -0.2908 H   0  0  0  0  0  0  0  0  0  0  0  0
  1  2  1  0
  2  3  2  0
  3  4  1  0
  4  5  2  0
  5  6  1  0
  6  7  2  0
  7  2  1  0
  1  8  1  0
  1  9  1  0
  1 10  1  0
  3 11  1  0
  4 12  1  0
  5 13  1  0
  6 14  1  0
  7 15  1  0
M  END
$$$$
conf_1
     RDKit          3D

 15 15  0  0  0  0  0  0  0  0999 V2000
    2.2092    0.1977   -0.1239 C   0  0  0  0  0  0  0  0  0  0  0  0
    0.7199    0.0613   -0.0103 C   0  0  0  0  0  0  0  0  0  0  0  0
    0.1149   -1.2019   -0.1133 C   0  0  0  0  0  0  0  0  0  0  0  0
   -1.2768   -1.3234   -0.0444 C   0  0  0  0  0  0  0  0  0  0  0  0
   -2.0723   -0.1852    0.1146 C   0  0  0  0  0  0  0  0  0  0  0  0
   -1.4778    1.0769    0.1999 C   0  0  0  0  0  0  0  0  0  0  0  0
   -0.0865    1.2025    0.1314 C   0  0  0  0  0  0  0  0  0  0  0  0
    2.5676    1.0752    0.4554 H   0  0  0  0  0  0  0  0  0  0  0  0
    2.7168   -0.7068    0.2741 H   0  0  0  0  0  0  0  0  0  0  0  0
    2.4875    0.3295   -1.1903 H   0  0  0  0  0  0  0  0  0  0  0  0
    0.7194   -2.0907   -0.2461 H   0  0  0  0  0  0  0  0  0  0  0  0
   -1.7386   -2.2995   -0.1181 H   0  0  0  0  0  0  0  0  0  0  0  0
   -3.1492   -0.2807    0.1664 H   0  0  0  0  0  0  0  0  0  0  0  0
   -2.0952    1.9583    0.3153 H   0  0  0  0  0  0  0  0  0  0  0  0
    0.3611    2.1870    0.1893 H   0  0  0  0  0  0  0  0  0  0  0  0
  1  2  1  0
  2  3  2  0
  3  4  1  0
  4  5  2  0
  5  6  1  0
  6  7  2  0
  7  2  1  0
  1  8  1  0
  1  9  1  0
  1 10  1  0
  3 11  1  0
  4 12  1  0
  5 13  1  0
  6 14  1  0
  7 15  1  0
M  END
$$$$
conf_2
     RDKit          3D

 15 15  0  0  0  0  0  0  0  0999 V2000
    2.2191    0.0886    0.0558 C   0  0  0  0  0  0  0  0  0  0  0  0
    0.7218    0.0319   -0.0119 C   0  0  0  0  0  0  0  0  0  0  0  0
    0.0651   -1.2035   -0.1340 C   0  0  0  0  0  0  0  0  0  0  0  0
   -1.3323   -1.2582   -0.1596 C   0  0  0  0  0  0  0  0  0  0  0  0
   -2.0815   -0.0832   -0.0507 C   0  0  0  0  0  0  0  0  0  0  0  0
   -1.4346    1.1479    0.0890 C   0  0  0  0  0  0  0  0  0  0  0  0
   -0.0374    1.2067    0.1150 C   0  0  0  0  0  0  0  0  0  0  0  0
    2.6694   -0.7352   -0.5380 H   0  0  0  0  0  0  0  0  0  0  0  0
    2.5935    1.0510   -0.3535 H   0  0  0  0  0  0  0  0  0  0  0  0
    2.5446   -0.0068    1.1126 H   0  0  0  0  0  0  0  0  0  0  0  0
    0.6337   -2.1222   -0.2098 H   0  0  0  0  0  0  0  0  0  0  0  0
   -1.8343   -2.2118   -0.2600 H   0  0  0  0  0  0  0  0  0  0  0  0
   -3.1628   -0.1273   -0.0693 H   0  0  0  0  0  0  0  0  0  0  0  0
   -2.0157    2.0563    0.1810 H   0  0  0  0  0  0  0  0  0  0  0  0
    0.4514    2.1659    0.2332 H   0  0  0  0  0  0  0  0  0  0  0  0
  1  2  1  0
  2  3  2  0
  3  4  1  0
  4  5  2  0
  5  6  1  0
  6  7  2  0
  7  2  1  0
  1  8  1  0
  1  9  1  0
  1 10  1  0
  3 11  1  0
  4 12  1  0
  5 13  1  0
  6 14  1  0
  7 15  1  0
M  END
$$$$
conf_3
     RDKit          3D

 15 15  0  0  0  0  0  0  0  0999 V2000
    2.2108    0.1926   -0.1012 C   0  0  0  0  0  0  0  0  0  0  0  0
    0.7172    0.0613   -0.0630 C   0  0  0  0  0  0  0  0  0  0  0  0
    0.1204   -1.2062    0.0348 C   0  0  0  0  0  0  0  0  0  0  0  0
   -1.2713   -1.3250    0.1078 C   0  0  0  0  0  0  0  0  0  0  0  0
   -2.0737   -0.1806    0.0966 C   0  0  0  0  0  0  0  0  0  0  0  0
   -1.4854    1.0848    0.0174 C   0  0  0  0  0  0  0  0  0  0  0  0
   -0.0941    1.2078   -0.0558 C   0  0  0  0  0  0  0  0  0  0  0  0
    2.6015    0.2662    0.9351 H   0  0  0  0  0  0  0  0  0  0  0  0
    2.6688   -0.6883   -0.5996 H   0  0  0  0  0  0  0  0  0  0  0  0
    2.5099    1.1008   -0.6668 H   0  0  0  0  0  0  0  0  0  0  0  0
    0.7312   -2.1004    0.0540 H   0  0  0  0  0  0  0  0  0  0  0  0
   -1.7275   -2.3041    0.1770 H   0  0  0  0  0  0  0  0  0  0  0  0
   -3.1504   -0.2741    0.1545 H   0  0  0  0  0  0  0  0  0  0  0  0
   -2.1072    1.9707    0.0165 H   0  0  0  0  0  0  0  0  0  0  0  0
    0.3497    2.1944   -0.1073 H   0  0  0  0  0  0  0  0  0  0  0  0
  1  2  1  0
  2  3  2  0
  3  4  1  0
  4  5  2  0
  5  6  1  0
  6  7  2  0
  7  2  1  0
  1  8  1  0
  1  9  1  0
  1 10  1  0
  3 11  1  0
  4 12  1  0
  5 13  1  0
  6 14  1  0
  7 15  1  0
M  END
$$$$
conf_4
     RDKit          3D

 15 15  0  0  0  0  0  0  0  0999 V2000
    2.2210    0.0467    0.0018 C   0  0  0  0  0  0  0  0  0  0  0  0
    0.7218    0.0125    0.0306 C   0  0  0  0  0  0  0  0  0  0  0  0
   -0.0118    1.2071    0.1162 C   0  0  0  0  0  0  0  0  0  0  0  0
   -1.4101    1.1764    0.1056 C   0  0  0  0  0  0  0  0  0  0  0  0
   -2.0833   -0.0436   -0.0033 C   0  0  0  0  0  0  0  0  0  0  0  0
   -1.3593   -1.2347   -0.1068 C   0  0  0  0  0  0  0  0  0  0  0  0
    0.0391   -1.2082   -0.0965 C   0  0  0  0  0  0  0  0  0  0  0  0
    2.6047    0.9050    0.5935 H   0  0  0  0  0  0  0  0  0  0  0  0
    2.5678    0.1465   -1.0479 H   0  0  0  0  0  0  0  0  0  0  0  0
    2.6425   -0.8851    0.4358 H   0  0  0  0  0  0  0  0  0  0  0  0
    0.4977    2.1598    0.1916 H   0  0  0  0  0  0  0  0  0  0  0  0
   -1.9716    2.0989    0.1779 H   0  0  0  0  0  0  0  0  0  0  0  0
   -3.1654   -0.0656   -0.0128 H   0  0  0  0  0  0  0  0  0  0  0  0
   -1.8815   -2.1783   -0.1989 H   0  0  0  0  0  0  0  0  0  0  0  0
    0.5883   -2.1374   -0.1869 H   0  0  0  0  0  0  0  0  0  0  0  0
  1  2  1  0
  2  3  2  0
  3  4  1  0
  4  5  2  0
  5  6  1  0
  6  7  2  0
  7  2  1  0
  1  8  1  0
  1  9  1  0
  1 10  1  0
  3 11  1  0
  4 12  1  0
  5 13  1  0
  6 14  1  0
  7 15  1  0
M  END
$$$$
conf_5
     RDKit          3D

 15 15  0  0  0  0  0  0  0  0999 V2000
    2.2091   -0.1341   -0.1923 C   0  0  0  0  0  0  0  0  0  0  0  0
    0.7205   -0.0443   -0.0324 C   0  0  0  0  0  0  0  0  0  0  0  0
    0.0898    1.2090    0.0315 C   0  0  0  0  0  0  0  0  0  0  0  0
   -1.3019    1.2915    0.1431 C   0  0  0  0  0  0  0  0  0  0  0  0
   -2.0723    0.1258    0.1787 C   0  0  0  0  0  0  0  0  0  0  0  0
   -1.4525   -1.1244    0.0976 C   0  0  0  0  0  0  0  0  0  0  0  0
   -0.0610   -1.2111   -0.0141 C   0  0  0  0  0  0  0  0  0  0  0  0
    2.7088    0.7260    0.3023 H   0  0  0  0  0  0  0  0  0  0  0  0
    2.4653   -0.1297   -1.2723 H   0  0  0  0  0  0  0  0  0  0  0  0
    2.5970   -1.0675    0.2685 H   0  0  0  0  0  0  0  0  0  0  0  0
    0.6744    2.1200   -0.0045 H   0  0  0  0  0  0  0  0  0  0  0  0
   -1.7834    2.2593    0.1983 H   0  0  0  0  0  0  0  0  0  0  0  0
   -3.1493    0.1913    0.2638 H   0  0  0  0  0  0  0  0  0  0  0  0
   -2.0505   -2.0263    0.1174 H   0  0  0  0  0  0  0  0  0  0  0  0
    0.4060   -2.1857   -0.0857 H   0  0  0  0  0  0  0  0  0  0  0  0
  1  2  1  0
  2  3  2  0
  3  4  1  0
  4  5  2  0
  5  6  1  0
  6  7  2  0
  7  2  1  0
  1  8  1  0
  1  9  1  0
  1 10  1  0
  3 11  1  0
  4 12  1  0
  5 13  1  0
  6 14  1  0
  7 15  1  0
M  END
$$$$
conf_6
     RDKit          3D

 15 15  0  0  0  0  0  0  0  0999 V2000
    2.2170   -0.1348    0.0460 C   0  0  0  0  0  0  0  0  0  0  0  0
    0.7195   -0.0486    0.0447 C   0  0  0  0  0  0  0  0  0  0  0  0
    0.0819    1.1927    0.2036 C   0  0  0  0  0  0  0  0  0  0  0  0
   -1.3136    1.2770    0.1651 C   0  0  0  0  0  0  0  0  0  0  0  0
   -2.0794    0.1267   -0.0448 C   0  0  0  0  0  0  0  0  0  0  0  0
   -1.4506   -1.1091   -0.2214 C   0  0  0  0  0  0  0  0  0  0  0  0
   -0.0553   -1.1975   -0.1836 C   0  0  0  0  0  0  0  0  0  0  0  0
    2.6536    0.6452    0.7056 H   0  0  0  0  0  0  0  0  0  0  0  0
    2.5959    0.0108   -0.9871 H   0  0  0  0  0  0  0  0  0  0  0  0
    2.5519   -1.1262    0.4187 H   0  0  0  0  0  0  0  0  0  0  0  0
    0.6640    2.0930    0.3576 H   0  0  0  0  0  0  0  0  0  0  0  0
   -1.8012    2.2346    0.2941 H   0  0  0  0  0  0  0  0  0  0  0  0
   -3.1592    0.1937   -0.0757 H   0  0  0  0  0  0  0  0  0  0  0  0
   -2.0443   -1.9980   -0.3916 H   0  0  0  0  0  0  0  0  0  0  0  0
    0.4198   -2.1595   -0.3313 H   0  0  0  0  0  0  0  0  0  0  0  0
  1  2  1  0
  2  3  2  0
  3  4  1  0
  4  5  2  0
  5  6  1  0
  6  7  2  0
  7  2  1  0
  1  8  1  0
  1  9  1  0
  1 10  1  0
  3 11  1  0
  4 12  1  0
  5 13  1  0
  6 14  1  0
  7 15  1  0
M  END
$$$$
conf_7
     RDKit          3D

 15 15  0  0  0  0  0  0  0  0999 V2000
   -2.2124   -0.1987   -0.0319 C   0  0  0  0  0  0  0  0  0  0  0  0
   -0.7186   -0.0632   -0.0405 C   0  0  0  0  0  0  0  0  0  0  0  0
    0.0957   -1.2072   -0.0658 C   0  0  0  0  0  0  0  0  0  0  0  0
    1.4882   -1.0804   -0.0362 C   0  0  0  0  0  0  0  0  0  0  0  0
    2.0752    0.1863    0.0316 C   0  0  0  0  0  0  0  0  0  0  0  0
    1.2703    1.3282    0.0750 C   0  0  0  0  0  0  0  0  0  0  0  0
   -0.1226    1.2056    0.0457 C   0  0  0  0  0  0  0  0  0  0  0  0
   -2.6885    0.6836   -0.5103 H   0  0  0  0  0  0  0  0  0  0  0  0
   -2.5696   -0.2795    1.0159 H   0  0  0  0  0  0  0  0  0  0  0  0
   -2.5267   -1.1045   -0.5930 H   0  0  0  0  0  0  0  0  0  0  0  0
   -0.3467   -2.1948   -0.1089 H   0  0  0  0  0  0  0  0  0  0  0  0
    2.1123   -1.9644   -0.0620 H   0  0  0  0  0  0  0  0  0  0  0  0
    3.1529    0.2827    0.0558 H   0  0  0  0  0  0  0  0  0  0  0  0
    1.7257    2.3083    0.1353 H   0  0  0  0  0  0  0  0  0  0  0  0
   -0.7351    2.0979    0.0894 H   0  0  0  0  0  0  0  0  0  0  0  0
  1  2  1  0
  2  3  2  0
  3  4  1  0
  4  5  2  0
  5  6  1  0
  6  7  2  0
  7  2  1  0
  1  8  1  0
  1  9  1  0
  1 10  1  0
  3 11  1  0
  4 12  1  0
  5 13  1  0
  6 14  1  0
  7 15  1  0
M  END
$$$$
conf_8
     RDKit          3D

 15 15  0  0  0  0  0  0  0  0999 V2000
    2.2141    0.0696   -0.1676 C   0  0  0  0  0  0  0  0  0  0  0  0
    0.7218    0.0212   -0.0244 C   0  0  0  0  0  0  0  0  0  0  0  0
   -0.0193    1.2107    0.0674 C   0  0  0  0  0  0  0  0  0  0  0  0
   -1.4139    1.1652    0.1634 C   0  0  0  0  0  0  0  0  0  0  0  0
   -2.0769   -0.0652    0.1556 C   0  0  0  0  0  0  0  0  0  0  0  0
   -1.3467   -1.2521    0.0466 C   0  0  0  0  0  0  0  0  0  0  0  0
    0.0480   -1.2108   -0.0497 C   0  0  0  0  0  0  0  0  0  0  0  0
    2.4799    0.1290   -1.2436 H   0  0  0  0  0  0  0  0  0  0  0  0
    2.6295    0.9558    0.3579 H   0  0  0  0  0  0  0  0  0  0  0  0
    2.6793   -0.8387    0.2711 H   0  0  0  0  0  0  0  0  0  0  0  0
    0.4816    2.1710    0.0651 H   0  0  0  0  0  0  0  0  0  0  0  0
   -1.9808    2.0840    0.2401 H   0  0  0  0  0  0  0  0  0  0  0  0
   -3.1563   -0.0987    0.2286 H   0  0  0  0  0  0  0  0  0  0  0  0
   -1.8617   -2.2040    0.0328 H   0  0  0  0  0  0  0  0  0  0  0  0
    0.6013   -2.1371   -0.1432 H   0  0  0  0  0  0  0  0  0  0  0  0
  1  2  1  0
  2  3  2  0
  3  4  1  0
  4  5  2  0
  5  6  1  0
  6  7  2  0
  7  2  1  0
  1  8  1  0
  1  9  1  0
  1 10  1  0
  3 11  1  0
  4 12  1  0
  5 13  1  0
  6 14  1  0
  7 15  1  0
M  END
$$$$
conf_9
     RDKit          3D

 15 15  0  0  0  0  0  0  0  0999 V2000
    2.2199   -0.0649   -0.0550 C   0  0  0  0  0  0  0  0  0  0  0  0
    0.7207   -0.0190   -0.0479 C   0  0  0  0  0  0  0  0  0  0  0  0
   -0.0240   -1.2090   -0.0914 C   0  0  0  0  0  0  0  0  0  0  0  0
   -1.4213   -1.1667   -0.0472 C   0  0  0  0  0  0  0  0  0  0  0  0
   -2.0822    0.0608    0.0532 C   0  0  0  0  0  0  0  0  0  0  0  0
   -1.3467    1.2477    0.1148 C   0  0  0  0  0  0  0  0  0  0  0  0
    0.0508    1.2096    0.0710 C   0  0  0  0  0  0  0  0  0  0  0  0
    2.5823   -0.9381   -0.6383 H   0  0  0  0  0  0  0  0  0  0  0  0
    2.6377    0.8544   -0.5180 H   0  0  0  0  0  0  0  0  0  0  0  0
    2.5915   -0.1464    0.9877 H   0  0  0  0  0  0  0  0  0  0  0  0
    0.4762   -2.1673   -0.1597 H   0  0  0  0  0  0  0  0  0  0  0  0
   -1.9915   -2.0858   -0.0871 H   0  0  0  0  0  0  0  0  0  0  0  0
   -3.1635    0.0918    0.0886 H   0  0  0  0  0  0  0  0  0  0  0  0
   -1.8592    2.1972    0.2003 H   0  0  0  0  0  0  0  0  0  0  0  0
    0.6091    2.1358    0.1290 H   0  0  0  0  0  0  0  0  0  0  0  0
  1  2  1  0
  2  3  2  0
  3  4  1  0
  4  5  2  0
  5  6  1  0
  6  7  2  0
  7  2  1  0
  1  8  1  0
  1  9  1  0
  1 10  1  0
  3 11  1  0
  4 12  1  0
  5 13  1  0
  6 14  1  0
  7 15  1  0
M  END
$$$$
