penta_ala
     RDKit          3D

 50 50  0  0  0  0  0  0  0  0999 V2000
   -3.2818   -1.9179    1.4085 O   0  0  0  0  0  0  0  0  0  0  0  0
   -2.4572   -1.6256    0.5005 C   0  0  0  0  0  0  0  0  0  0  0  0
   -1.9129   -2.7176   -0.3793 C   0  0  2  0  0  0  0  0  0  0  0  0
   -0.4584   -2.5882   -0.5016 N   0  0  0  0  0  0  0  0  0  0  0  0
    0.4373   -3.0258    0.5318 C   0  0  0  0  0  0  0  0  0  0  0  0
    1.9224   -2.8321    0.3884 C   0  0  2  0  0  0  0  0  0  0  0  0
    2.2247   -1.4095    0.2112 N   0  0  0  0  0  0  0  0  0  0  0  0
    2.3355   -0.5105    1.3268 C   0  0  0  0  0  0  0  0  0  0  0  0
    2.6586    0.9469    1.1192 C   0  0  2  0  0  0  0  0  0  0  0  0
    1.5510    1.6137    0.4314 N   0  0  0  0  0  0  0  0  0  0  0  0
    1.1421    2.9543    0.7472 C   0  0  0  0  0  0  0  0  0  0  0  0
   -0.0515    3.5695    0.0662 C   0  0  2  0  0  0  0  0  0  0  0  0
   -1.1353    2.5883   -0.0498 N   0  0  0  0  0  0  0  0  0  0  0  0
   -1.7757    2.0192    1.1041 C   0  0  0  0  0  0  0  0  0  0  0  0
   -2.7288    0.8603    0.9642 C   0  0  2  0  0  0  0  0  0  0  0  0
   -2.0720   -0.2593    0.2832 N   0  0  0  0  0  0  0  0  0  0  0  0
   -3.9838    1.2781    0.1962 C   0  0  0  0  0  0  0  0  0  0  0  0
   -1.5388    2.4864    2.2514 O   0  0  0  0  0  0  0  0  0  0  0  0
    0.3517    4.0940   -1.3139 C   0  0  0  0  0  0  0  0  0  0  0  0
    1.7965    3.6400    1.5790 O   0  0  0  0  0  0  0  0  0  0  0  0
    3.9542    1.1258    0.3258 C   0  0  0  0  0  0  0  0  0  0  0  0
    2.1395   -0.9332    2.4988 O   0  0  0  0  0  0  0  0  0  0  0  0
    2.4636   -3.6466   -0.7896 C   0  0  0  0  0  0  0  0  0  0  0  0
   -0.0155   -3.5802    1.5702 O   0  0  0  0  0  0  0  0  0  0  0  0
   -2.5733   -2.6579   -1.7589 C   0  0  0  0  0  0  0  0  0  0  0  0
   -2.1552   -3.7101    0.0626 H   0  0  0  0  0  0  0  0  0  0  0  0
   -0.0591   -2.1043   -1.3379 H   0  0  0  0  0  0  0  0  0  0  0  0
    2.4348   -3.2049    1.3039 H   0  0  0  0  0  0  0  0  0  0  0  0
    2.2818   -1.0220   -0.7577 H   0  0  0  0  0  0  0  0  0  0  0  0
    2.8104    1.4087    2.1207 H   0  0  0  0  0  0  0  0  0  0  0  0
    1.0969    1.1320   -0.3781 H   0  0  0  0  0  0  0  0  0  0  0  0
   -0.4157    4.4325    0.6670 H   0  0  0  0  0  0  0  0  0  0  0  0
   -1.4247    2.2578   -0.9984 H   0  0  0  0  0  0  0  0  0  0  0  0
   -3.0388    0.5419    1.9849 H   0  0  0  0  0  0  0  0  0  0  0  0
   -1.4066   -0.0577   -0.4968 H   0  0  0  0  0  0  0  0  0  0  0  0
   -4.4732    2.1384    0.7007 H   0  0  0  0  0  0  0  0  0  0  0  0
   -4.7053    0.4341    0.1664 H   0  0  0  0  0  0  0  0  0  0  0  0
   -3.7336    1.5636   -0.8473 H   0  0  0  0  0  0  0  0  0  0  0  0
    0.7165    3.2645   -1.9576 H   0  0  0  0  0  0  0  0  0  0  0  0
   -0.5226    4.5718   -1.8056 H   0  0  0  0  0  0  0  0  0  0  0  0
    1.1559    4.8544   -1.2153 H   0  0  0  0  0  0  0  0  0  0  0  0
    3.8423    0.7502   -0.7129 H   0  0  0  0  0  0  0  0  0  0  0  0
    4.7862    0.5819    0.8221 H   0  0  0  0  0  0  0  0  0  0  0  0
    4.2185    2.2037    0.2804 H   0  0  0  0  0  0  0  0  0  0  0  0
    2.0072   -3.3178   -1.7476 H   0  0  0  0  0  0  0  0  0  0  0  0
    2.2471   -4.7262   -0.6394 H   0  0  0  0  0  0  0  0  0  0  0  0
    3.5647   -3.5167   -0.8604 H   0  0  0  0  0  0  0  0  0  0  0  0
   -2.3694   -1.6839   -2.2543 H   0  0  0  0  0  0  0  0  0  0  0  0
   -3.6727   -2.7894   -1.6626 H   0  0  0  0  0  0  0  0  0  0  0  0
   -2.1775   -3.4747   -2.3998 H   0  0  0  0  0  0  0  0  0  0  0  0
  1  2  2  0
  2  3  1  0
  3  4  1  0
  4  5  1  0
  5  6  1  0
  6  7  1  0
  7  8  1  0
  8  9  1  0
  9 10  1  0
 10 11  1  0
 11 12  1  0
 12 13  1  0
 13 14  1  0
 14 15  1  0
 15 16  1  0
 15 17  1  0
 14 18  2  0
 12 19  1  0
 11 20  2  0
  9 21  1  0
  8 22  2  0
  6 23  1  0
  5 24  2  0
  3 25  1  0
 16  2  1  0
  3 26  1  1
  4 27  1  0
  6 28  1  1
  7 29  1  0
  9 30  1  1
 10 31  1  0
 12 32  1  1
 13 33  1  0
 15 34  1  1
 16 35  1  0
 17 36  1  0
 17 37  1  0
 17 38  1  0
 19 39  1  0
 19 40  1  0
 19 41  1  0
 21 42  1  0
 21 43  1  0
 21 44  1  0
 23 45  1  0
 23 46  1  0
 23 47  1  0
 25 48  1  0
 25 49  1  0
 25 50  1  0
M  END
$$$$
