benzene_conf0
     RDKit          3D

 12 12  0  0  0  0  0  0  0  0999 V2000
    0.8050   -1.1442    0.0158 C   0  0  0  0  0  0  0  0  0  0  0  0
    1.3934    0.1250   -0.0011 C   0  0  0  0  0  0  0  0  0  0  0  0
    0.5885    1.2691   -0.0169 C   0  0  0  0  0  0  0  0  0  0  0  0
   -0.8050    1.1442   -0.0158 C   0  0  0  0  0  0  0  0  0  0  0  0
   -1.3934   -0.1250    0.0011 C   0  0  0  0  0  0  0  0  0  0  0  0
   -0.5885   -1.2691    0.0169 C   0  0  0  0  0  0  0  0  0  0  0  0
    1.4277   -2.0293    0.0281 H   0  0  0  0  0  0  0  0  0  0  0  0
    2.4715    0.2217   -0.0019 H   0  0  0  0  0  0  0  0  0  0  0  0
    1.0437    2.2510   -0.0300 H   0  0  0  0  0  0  0  0  0  0  0  0
   -1.4277    2.0293   -0.0281 H   0  0  0  0  0  0  0  0  0  0  0  0
   -2.4715   -0.2217    0.0019 H   0  0  0  0  0  0  0  0  0  0  0  0
   -1.0437   -2.2510    0.0300 H   0  0  0  0  0  0  0  0  0  0  0  0
  1  2  2  0
  2  3  1  0
  3  4  2  0
  4  5  1  0
  5  6  2  0
  6  1  1  0
  1  7  1  0
  2  8  1  0
  3  9  1  0
  4 10  1  0
  5 11  1  0
  6 12  1  0
M  END
$$$$
benzene_conf1
     RDKit          3D

 12 12  0  0  0  0  0  0  0  0999 V2000
    1.1594   -0.7673   -0.1563 C   0  0  0  0  0  0  0  0  0  0  0  0
    1.2511    0.6244   -0.0468 C   0  0  0  0  0  0  0  0  0  0  0  0
    0.0917    1.3917    0.1095 C   0  0  0  0  0  0  0  0  0  0  0  0
   -1.1594    0.7673    0.1563 C   0  0  0  0  0  0  0  0  0  0  0  0
   -1.2511   -0.6244    0.0468 C   0  0  0  0  0  0  0  0  0  0  0  0
   -0.0917   -1.3917   -0.1095 C   0  0  0  0  0  0  0  0  0  0  0  0
    2.0563   -1.3609   -0.2773 H   0  0  0  0  0  0  0  0  0  0  0  0
    2.2190    1.1075   -0.0830 H   0  0  0  0  0  0  0  0  0  0  0  0
    0.1627    2.4684    0.1943 H   0  0  0  0  0  0  0  0  0  0  0  0
   -2.0563    1.3609    0.2773 H   0  0  0  0  0  0  0  0  0  0  0  0
   -2.2190   -1.1075    0.0830 H   0  0  0  0  0  0  0  0  0  0  0  0
   -0.1627   -2.4684   -0.1943 H   0  0  0  0  0  0  0  0  0  0  0  0
  1  2  2  0
  2  3  1  0
  3  4  2  0
  4  5  1  0
  5  6  2  0
  6  1  1  0
  1  7  1  0
  2  8  1  0
  3  9  1  0
  4 10  1  0
  5 11  1  0
  6 12  1  0
M  END
$$$$
benzene_conf2
     RDKit          3D

 12 12  0  0  0  0  0  0  0  0999 V2000
   -1.3755    0.2313    0.1092 C   0  0  0  0  0  0  0  0  0  0  0  0
   -0.8910   -1.0784    0.0237 C   0  0  0  0  0  0  0  0  0  0  0  0
    0.4845   -1.3097   -0.0855 C   0  0  0  0  0  0  0  0  0  0  0  0
    1.3755   -0.2313   -0.1092 C   0  0  0  0  0  0  0  0  0  0  0  0
    0.8910    1.0784   -0.0237 C   0  0  0  0  0  0  0  0  0  0  0  0
   -0.4845    1.3097    0.0855 C   0  0  0  0  0  0  0  0  0  0  0  0
   -2.4396    0.4102    0.1937 H   0  0  0  0  0  0  0  0  0  0  0  0
   -1.5802   -1.9127    0.0420 H   0  0  0  0  0  0  0  0  0  0  0  0
    0.8594   -2.3229   -0.1516 H   0  0  0  0  0  0  0  0  0  0  0  0
    2.4396   -0.4102   -0.1937 H   0  0  0  0  0  0  0  0  0  0  0  0
    1.5802    1.9127   -0.0420 H   0  0  0  0  0  0  0  0  0  0  0  0
   -0.8594    2.3229    0.1516 H   0  0  0  0  0  0  0  0  0  0  0  0
  1  2  2  0
  2  3  1  0
  3  4  2  0
  4  5  1  0
  5  6  2  0
  6  1  1  0
  1  7  1  0
  2  8  1  0
  3  9  1  0
  4 10  1  0
  5 11  1  0
  6 12  1  0
M  END
$$$$
benzene_conf3
     RDKit          3D

 12 12  0  0  0  0  0  0  0  0999 V2000
   -0.0092   -1.3985    0.0371 C   0  0  0  0  0  0  0  0  0  0  0  0
   -1.2158   -0.6922   -0.0128 C   0  0  0  0  0  0  0  0  0  0  0  0
   -1.2066    0.7064   -0.0499 C   0  0  0  0  0  0  0  0  0  0  0  0
    0.0092    1.3985   -0.0371 C   0  0  0  0  0  0  0  0  0  0  0  0
    1.2158    0.6922    0.0128 C   0  0  0  0  0  0  0  0  0  0  0  0
    1.2066   -0.7064    0.0499 C   0  0  0  0  0  0  0  0  0  0  0  0
   -0.0162   -2.4805    0.0658 H   0  0  0  0  0  0  0  0  0  0  0  0
   -2.1563   -1.2276   -0.0228 H   0  0  0  0  0  0  0  0  0  0  0  0
   -2.1401    1.2528   -0.0885 H   0  0  0  0  0  0  0  0  0  0  0  0
    0.0162    2.4805   -0.0658 H   0  0  0  0  0  0  0  0  0  0  0  0
    2.1563    1.2276    0.0228 H   0  0  0  0  0  0  0  0  0  0  0  0
    2.1401   -1.2528    0.0885 H   0  0  0  0  0  0  0  0  0  0  0  0
  1  2  2  0
  2  3  1  0
  3  4  2  0
  4  5  1  0
  5  6  2  0
  6  1  1  0
  1  7  1  0
  2  8  1  0
  3  9  1  0
  4 10  1  0
  5 11  1  0
  6 12  1  0
M  END
$$$$
benzene_conf4
     RDKit          3D

 12 12  0  0  0  0  0  0  0  0999 V2000
    1.3487   -0.3717    0.0155 C   0  0  0  0  0  0  0  0  0  0  0  0
    0.3524   -1.3539    0.0037 C   0  0  0  0  0  0  0  0  0  0  0  0
   -0.9962   -0.9822   -0.0118 C   0  0  0  0  0  0  0  0  0  0  0  0
   -1.3487    0.3717   -0.0155 C   0  0  0  0  0  0  0  0  0  0  0  0
   -0.3524    1.3539   -0.0037 C   0  0  0  0  0  0  0  0  0  0  0  0
    0.9962    0.9822    0.0118 C   0  0  0  0  0  0  0  0  0  0  0  0
    2.3920   -0.6593    0.0274 H   0  0  0  0  0  0  0  0  0  0  0  0
    0.6251   -2.4013    0.0065 H   0  0  0  0  0  0  0  0  0  0  0  0
   -1.7669   -1.7421   -0.0209 H   0  0  0  0  0  0  0  0  0  0  0  0
   -2.3920    0.6593   -0.0274 H   0  0  0  0  0  0  0  0  0  0  0  0
   -0.6251    2.4013   -0.0065 H   0  0  0  0  0  0  0  0  0  0  0  0
    1.7669    1.7421    0.0209 H   0  0  0  0  0  0  0  0  0  0  0  0
  1  2  2  0
  2  3  1  0
  3  4  2  0
  4  5  1  0
  5  6  2  0
  6  1  1  0
  1  7  1  0
  2  8  1  0
  3  9  1  0
  4 10  1  0
  5 11  1  0
  6 12  1  0
M  END
$$$$
benzene_conf5
     RDKit          3D

 12 12  0  0  0  0  0  0  0  0999 V2000
   -0.4106   -1.3370    0.0345 C   0  0  0  0  0  0  0  0  0  0  0  0
    0.9529   -1.0235    0.0420 C   0  0  0  0  0  0  0  0  0  0  0  0
    1.3634    0.3135    0.0075 C   0  0  0  0  0  0  0  0  0  0  0  0
    0.4106    1.3370   -0.0345 C   0  0  0  0  0  0  0  0  0  0  0  0
   -0.9529    1.0235   -0.0420 C   0  0  0  0  0  0  0  0  0  0  0  0
   -1.3634   -0.3135   -0.0075 C   0  0  0  0  0  0  0  0  0  0  0  0
   -0.7282   -2.3713    0.0612 H   0  0  0  0  0  0  0  0  0  0  0  0
    1.6901   -1.8153    0.0744 H   0  0  0  0  0  0  0  0  0  0  0  0
    2.4182    0.5560    0.0132 H   0  0  0  0  0  0  0  0  0  0  0  0
    0.7282    2.3713   -0.0612 H   0  0  0  0  0  0  0  0  0  0  0  0
   -1.6901    1.8153   -0.0744 H   0  0  0  0  0  0  0  0  0  0  0  0
   -2.4182   -0.5560   -0.0132 H   0  0  0  0  0  0  0  0  0  0  0  0
  1  2  2  0
  2  3  1  0
  3  4  2  0
  4  5  1  0
  5  6  2  0
  6  1  1  0
  1  7  1  0
  2  8  1  0
  3  9  1  0
  4 10  1  0
  5 11  1  0
  6 12  1  0
M  END
$$$$
benzene_conf6
     RDKit          3D

 12 12  0  0  0  0  0  0  0  0999 V2000
   -0.9862    0.9924   -0.0021 C   0  0  0  0  0  0  0  0  0  0  0  0
    0.3663    1.3502   -0.0091 C   0  0  0  0  0  0  0  0  0  0  0  0
    1.3525    0.3578   -0.0070 C   0  0  0  0  0  0  0  0  0  0  0  0
    0.9862   -0.9924    0.0021 C   0  0  0  0  0  0  0  0  0  0  0  0
   -0.3663   -1.3502    0.0091 C   0  0  0  0  0  0  0  0  0  0  0  0
   -1.3525   -0.3578    0.0070 C   0  0  0  0  0  0  0  0  0  0  0  0
   -1.7491    1.7601   -0.0037 H   0  0  0  0  0  0  0  0  0  0  0  0
    0.6497    2.3948   -0.0161 H   0  0  0  0  0  0  0  0  0  0  0  0
    2.3988    0.6347   -0.0124 H   0  0  0  0  0  0  0  0  0  0  0  0
    1.7491   -1.7601    0.0037 H   0  0  0  0  0  0  0  0  0  0  0  0
   -0.6497   -2.3948    0.0161 H   0  0  0  0  0  0  0  0  0  0  0  0
   -2.3988   -0.6347    0.0124 H   0  0  0  0  0  0  0  0  0  0  0  0
  1  2  2  0
  2  3  1  0
  3  4  2  0
  4  5  1  0
  5  6  2  0
  6  1  1  0
  1  7  1  0
  2  8  1  0
  3  9  1  0
  4 10  1  0
  5 11  1  0
  6 12  1  0
M  END
$$$$
benzene_conf7
     RDKit          3D

 12 12  0  0  0  0  0  0  0  0999 V2000
   -1.0332    0.9432   -0.0135 C   0  0  0  0  0  0  0  0  0  0  0  0
   -1.3335   -0.4232   -0.0030 C   0  0  0  0  0  0  0  0  0  0  0  0
   -0.3003   -1.3664    0.0104 C   0  0  0  0  0  0  0  0  0  0  0  0
    1.0332   -0.9432    0.0135 C   0  0  0  0  0  0  0  0  0  0  0  0
    1.3335    0.4232    0.0030 C   0  0  0  0  0  0  0  0  0  0  0  0
    0.3003    1.3664   -0.0104 C   0  0  0  0  0  0  0  0  0  0  0  0
   -1.8325    1.6729   -0.0239 H   0  0  0  0  0  0  0  0  0  0  0  0
   -2.3651   -0.7506   -0.0054 H   0  0  0  0  0  0  0  0  0  0  0  0
   -0.5326   -2.4235    0.0185 H   0  0  0  0  0  0  0  0  0  0  0  0
    1.8325   -1.6729    0.0239 H   0  0  0  0  0  0  0  0  0  0  0  0
    2.3651    0.7506    0.0054 H   0  0  0  0  0  0  0  0  0  0  0  0
    0.5326    2.4235   -0.0185 H   0  0  0  0  0  0  0  0  0  0  0  0
  1  2  2  0
  2  3  1  0
  3  4  2  0
  4  5  1  0
  5  6  2  0
  6  1  1  0
  1  7  1  0
  2  8  1  0
  3  9  1  0
  4 10  1  0
  5 11  1  0
  6 12  1  0
M  END
$$$$
benzene_conf8
     RDKit          3D

 12 12  0  0  0  0  0  0  0  0999 V2000
   -0.7139    1.2030    0.0215 C   0  0  0  0  0  0  0  0  0  0  0  0
   -1.3989   -0.0167    0.0021 C   0  0  0  0  0  0  0  0  0  0  0  0
   -0.6850   -1.2197   -0.0195 C   0  0  0  0  0  0  0  0  0  0  0  0
    0.7139   -1.2030   -0.0215 C   0  0  0  0  0  0  0  0  0  0  0  0
    1.3989    0.0167   -0.0021 C   0  0  0  0  0  0  0  0  0  0  0  0
    0.6850    1.2197    0.0195 C   0  0  0  0  0  0  0  0  0  0  0  0
   -1.2662    2.1337    0.0382 H   0  0  0  0  0  0  0  0  0  0  0  0
   -2.4812   -0.0297    0.0037 H   0  0  0  0  0  0  0  0  0  0  0  0
   -1.2150   -2.1633   -0.0345 H   0  0  0  0  0  0  0  0  0  0  0  0
    1.2662   -2.1337   -0.0382 H   0  0  0  0  0  0  0  0  0  0  0  0
    2.4812    0.0297   -0.0037 H   0  0  0  0  0  0  0  0  0  0  0  0
    1.2150    2.1633    0.0345 H   0  0  0  0  0  0  0  0  0  0  0  0
  1  2  2  0
  2  3  1  0
  3  4  2  0
  4  5  1  0
  5  6  2  0
  6  1  1  0
  1  7  1  0
  2  8  1  0
  3  9  1  0
  4 10  1  0
  5 11  1  0
  6 12  1  0
M  END
$$$$
benzene_conf9
     RDKit          3D

 12 12  0  0  0  0  0  0  0  0999 V2000
   -0.9918   -0.9867    0.0039 C   0  0  0  0  0  0  0  0  0  0  0  0
    0.3586   -1.3523   -0.0042 C   0  0  0  0  0  0  0  0  0  0  0  0
    1.3504   -0.3656   -0.0081 C   0  0  0  0  0  0  0  0  0  0  0  0
    0.9918    0.9867   -0.0039 C   0  0  0  0  0  0  0  0  0  0  0  0
   -0.3586    1.3523    0.0042 C   0  0  0  0  0  0  0  0  0  0  0  0
   -1.3504    0.3656    0.0081 C   0  0  0  0  0  0  0  0  0  0  0  0
   -1.7591   -1.7500    0.0069 H   0  0  0  0  0  0  0  0  0  0  0  0
    0.6360   -2.3985   -0.0075 H   0  0  0  0  0  0  0  0  0  0  0  0
    2.3951   -0.6484   -0.0144 H   0  0  0  0  0  0  0  0  0  0  0  0
    1.7591    1.7500   -0.0069 H   0  0  0  0  0  0  0  0  0  0  0  0
   -0.6360    2.3985    0.0075 H   0  0  0  0  0  0  0  0  0  0  0  0
   -2.3951    0.6484    0.0144 H   0  0  0  0  0  0  0  0  0  0  0  0
  1  2  2  0
  2  3  1  0
  3  4  2  0
  4  5  1  0
  5  6  2  0
  6  1  1  0
  1  7  1  0
  2  8  1  0
  3  9  1  0
  4 10  1  0
  5 11  1  0
  6 12  1  0
M  END
$$$$
